Version 4
SHEET 1 11196 7096
WIRE -1184 -1104 -1200 -1104
WIRE -976 -1088 -1136 -1088
WIRE -976 -1056 -1040 -1056
WIRE 272 -1056 256 -1056
WIRE 480 -1040 320 -1040
WIRE 480 -1008 416 -1008
WIRE -1280 -976 -1280 -1104
WIRE -1280 -976 -1328 -976
WIRE -1248 -976 -1280 -976
WIRE -1184 -960 -1184 -1104
WIRE -1136 -960 -1136 -1088
WIRE -1136 -960 -1184 -960
WIRE -1248 -944 -1280 -944
WIRE -3280 -928 -3296 -928
WIRE -3168 -928 -3200 -928
WIRE -1040 -928 -1040 -1056
WIRE -1008 -928 -1040 -928
WIRE -912 -928 -912 -1072
WIRE -912 -928 -944 -928
WIRE 48 -928 -96 -928
WIRE 176 -928 176 -1056
WIRE 176 -928 128 -928
WIRE 208 -928 176 -928
WIRE 272 -912 272 -1056
WIRE 320 -912 320 -1040
WIRE 320 -912 272 -912
WIRE 208 -896 176 -896
WIRE -3296 -880 -3296 -928
WIRE -1040 -880 -1040 -928
WIRE -880 -880 -1040 -880
WIRE 416 -880 416 -1008
WIRE 448 -880 416 -880
WIRE 544 -880 544 -1024
WIRE 544 -880 512 -880
WIRE -1280 -848 -1280 -944
WIRE -1280 -848 -1328 -848
WIRE -1040 -832 -1040 -880
WIRE 416 -832 416 -880
WIRE 576 -832 416 -832
WIRE -3296 -800 -3296 -880
WIRE -3264 -800 -3296 -800
WIRE -624 -800 -624 -864
WIRE 176 -800 176 -896
WIRE 176 -800 128 -800
WIRE -3168 -784 -3168 -928
WIRE -3168 -784 -3200 -784
WIRE 416 -784 416 -832
WIRE -3712 -768 -3808 -768
WIRE -3616 -768 -3632 -768
WIRE -3264 -768 -3536 -768
WIRE -304 -768 -304 -816
WIRE -3808 -752 -3808 -768
WIRE 832 -752 832 -816
WIRE -880 -720 -880 -880
WIRE -816 -720 -880 -720
WIRE -624 -720 -624 -800
WIRE -608 -720 -624 -720
WIRE 1152 -720 1152 -768
WIRE -544 -704 -544 -864
WIRE -512 -704 -544 -704
WIRE -736 -688 -736 -720
WIRE -672 -688 -736 -688
WIRE -608 -688 -672 -688
WIRE -1184 -672 -1200 -672
WIRE -304 -672 -304 -768
WIRE -288 -672 -304 -672
WIRE 576 -672 576 -832
WIRE 640 -672 576 -672
WIRE 832 -672 832 -752
WIRE 848 -672 832 -672
WIRE -976 -656 -1136 -656
WIRE -224 -656 -224 -816
WIRE -96 -656 -96 -928
WIRE -96 -656 -224 -656
WIRE 912 -656 912 -816
WIRE 944 -656 912 -656
WIRE -432 -640 -432 -704
WIRE -288 -640 -432 -640
WIRE 720 -640 720 -672
WIRE 784 -640 720 -640
WIRE 848 -640 784 -640
WIRE -976 -624 -1040 -624
WIRE -816 -624 -880 -624
WIRE -736 -624 -736 -688
WIRE 272 -624 256 -624
WIRE 1152 -624 1152 -720
WIRE 1168 -624 1152 -624
WIRE 4912 -624 4896 -624
WIRE 5008 -624 4992 -624
WIRE 480 -608 320 -608
WIRE 1232 -608 1232 -768
WIRE 1440 -608 1232 -608
WIRE 1024 -592 1024 -656
WIRE 1168 -592 1024 -592
WIRE 4896 -592 4896 -624
WIRE 480 -576 416 -576
WIRE 640 -576 576 -576
WIRE 720 -576 720 -640
WIRE -2048 -544 -2064 -544
WIRE -1280 -544 -1280 -672
WIRE -1280 -544 -1328 -544
WIRE -1248 -544 -1280 -544
WIRE -432 -544 -432 -640
WIRE -1184 -528 -1184 -672
WIRE -1136 -528 -1136 -656
WIRE -1136 -528 -1184 -528
WIRE -2528 -512 -2544 -512
WIRE -1248 -512 -1280 -512
WIRE 4896 -512 4896 -592
WIRE 4928 -512 4896 -512
WIRE -1040 -496 -1040 -624
WIRE -1008 -496 -1040 -496
WIRE -912 -496 -912 -640
WIRE -912 -496 -944 -496
WIRE 176 -496 176 -624
WIRE 176 -496 128 -496
WIRE 208 -496 176 -496
WIRE 1024 -496 1024 -592
WIRE 5008 -496 5008 -624
WIRE 5008 -496 4992 -496
WIRE 5104 -496 5008 -496
WIRE 5216 -496 5184 -496
WIRE 6016 -496 6000 -496
WIRE 6128 -496 6096 -496
WIRE 6576 -496 6560 -496
WIRE 6672 -496 6656 -496
WIRE 272 -480 272 -624
WIRE 320 -480 320 -608
WIRE 320 -480 272 -480
WIRE 1440 -480 1440 -608
WIRE 4640 -480 4544 -480
WIRE 4736 -480 4704 -480
WIRE 4784 -480 4736 -480
WIRE 4864 -480 4848 -480
WIRE 4928 -480 4864 -480
WIRE 5488 -480 5360 -480
WIRE -3504 -464 -3520 -464
WIRE -3040 -464 -3056 -464
WIRE -2144 -464 -2144 -544
WIRE -2144 -464 -2240 -464
WIRE -2048 -464 -2048 -544
WIRE 208 -464 176 -464
WIRE 6560 -464 6560 -496
WIRE 416 -448 416 -576
WIRE 448 -448 416 -448
WIRE 544 -448 544 -592
WIRE 544 -448 512 -448
WIRE 6000 -448 6000 -496
WIRE -2624 -432 -2624 -512
WIRE -2624 -432 -2720 -432
WIRE -2528 -432 -2528 -512
WIRE -2144 -432 -2144 -464
WIRE -2112 -432 -2144 -432
WIRE 1520 -432 1520 -480
WIRE 1600 -432 1600 -496
WIRE 1600 -432 1520 -432
WIRE -2048 -416 -2048 -464
WIRE -1280 -416 -1280 -512
WIRE -1280 -416 -1328 -416
WIRE -432 -416 -432 -544
WIRE -2624 -400 -2624 -432
WIRE -2592 -400 -2624 -400
WIRE -2320 -400 -2320 -464
WIRE -2240 -400 -2320 -400
WIRE -2112 -400 -2160 -400
WIRE -1040 -400 -1040 -496
WIRE -880 -400 -880 -624
WIRE -880 -400 -1040 -400
WIRE -3600 -384 -3600 -464
WIRE -3600 -384 -3696 -384
WIRE -3504 -384 -3504 -464
WIRE -3136 -384 -3136 -464
WIRE -3136 -384 -3232 -384
WIRE -3040 -384 -3040 -464
WIRE -2528 -384 -2528 -432
WIRE 1440 -384 1312 -384
WIRE 1520 -384 1520 -432
WIRE 6560 -384 6560 -464
WIRE 6592 -384 6560 -384
WIRE -2800 -368 -2800 -432
WIRE -2720 -368 -2800 -368
WIRE -2592 -368 -2640 -368
WIRE -96 -368 -96 -656
WIRE 48 -368 -96 -368
WIRE 176 -368 176 -464
WIRE 176 -368 128 -368
WIRE 944 -368 928 -368
WIRE 1024 -368 1024 -496
WIRE 6000 -368 6000 -448
WIRE 6032 -368 6000 -368
WIRE 6672 -368 6672 -496
WIRE 6672 -368 6656 -368
WIRE 6720 -368 6672 -368
WIRE -3600 -352 -3600 -384
WIRE -3568 -352 -3600 -352
WIRE -3136 -352 -3136 -384
WIRE -3104 -352 -3136 -352
WIRE -1040 -352 -1040 -400
WIRE 416 -352 416 -448
WIRE 576 -352 576 -576
WIRE 576 -352 416 -352
WIRE 1600 -352 1600 -432
WIRE 1616 -352 1600 -352
WIRE 5360 -352 5360 -480
WIRE 5392 -352 5360 -352
WIRE 6128 -352 6128 -496
WIRE 6128 -352 6096 -352
WIRE 6240 -352 6128 -352
WIRE 6384 -352 6320 -352
WIRE 6432 -352 6384 -352
WIRE 6528 -352 6512 -352
WIRE 6592 -352 6528 -352
WIRE -3504 -336 -3504 -384
WIRE -3040 -336 -3040 -384
WIRE 1680 -336 1680 -496
WIRE 1744 -336 1680 -336
WIRE 4736 -336 4736 -400
WIRE 5008 -336 5008 -496
WIRE 5008 -336 4736 -336
WIRE 5488 -336 5488 -480
WIRE 5488 -336 5456 -336
WIRE 5600 -336 5488 -336
WIRE 5760 -336 5664 -336
WIRE 5808 -336 5760 -336
WIRE 5984 -336 5872 -336
WIRE 6032 -336 5984 -336
WIRE 6384 -336 6384 -352
WIRE -3776 -320 -3776 -384
WIRE -3696 -320 -3776 -320
WIRE -3568 -320 -3616 -320
WIRE -3312 -320 -3312 -384
WIRE -3232 -320 -3312 -320
WIRE -3104 -320 -3152 -320
WIRE 1520 -320 1472 -320
WIRE 1616 -320 1600 -320
WIRE 5216 -320 5216 -496
WIRE 5392 -320 5216 -320
WIRE 416 -304 416 -352
WIRE -3312 -288 -3312 -320
WIRE -2320 -288 -2320 -400
WIRE 4544 -288 4544 -480
WIRE 4544 -288 4432 -288
WIRE 4896 -272 4880 -272
WIRE 4992 -272 4976 -272
WIRE -2800 -256 -2800 -368
WIRE 1600 -240 1600 -320
WIRE 4880 -240 4880 -272
WIRE -3776 -208 -3776 -320
WIRE -3312 -208 -3312 -288
WIRE 5760 -208 5760 -256
WIRE 6128 -208 6128 -352
WIRE 6128 -208 5760 -208
WIRE 6384 -208 6384 -272
WIRE 6672 -208 6672 -368
WIRE 6672 -208 6384 -208
WIRE -96 -192 -96 -368
WIRE 928 -192 928 -368
WIRE 928 -192 -96 -192
WIRE 4880 -160 4880 -240
WIRE 4912 -160 4880 -160
WIRE 4992 -144 4992 -272
WIRE 4992 -144 4976 -144
WIRE 5104 -144 4992 -144
WIRE 5216 -144 5216 -320
WIRE 5216 -144 5184 -144
WIRE 4544 -128 4544 -288
WIRE 4624 -128 4544 -128
WIRE 4720 -128 4704 -128
WIRE 4752 -128 4720 -128
WIRE 4848 -128 4832 -128
WIRE 4912 -128 4848 -128
WIRE 1600 -112 1600 -160
WIRE 4720 -112 4720 -128
WIRE 256 -80 240 -80
WIRE 464 -64 304 -64
WIRE -1184 -32 -1200 -32
WIRE 464 -32 400 -32
WIRE -976 -16 -1136 -16
WIRE -976 16 -1040 16
WIRE 4720 16 4720 -48
WIRE 4992 16 4992 -144
WIRE 4992 16 4720 16
WIRE 32 48 -48 48
WIRE 160 48 160 -80
WIRE 160 48 112 48
WIRE 192 48 160 48
WIRE 256 64 256 -80
WIRE 304 64 304 -64
WIRE 304 64 256 64
WIRE 192 80 160 80
WIRE -1280 96 -1280 -32
WIRE -1280 96 -1328 96
WIRE -1248 96 -1280 96
WIRE 400 96 400 -32
WIRE 432 96 400 96
WIRE 528 96 528 -48
WIRE 528 96 496 96
WIRE -1184 112 -1184 -32
WIRE -1136 112 -1136 -16
WIRE -1136 112 -1184 112
WIRE -1248 128 -1280 128
WIRE -1040 144 -1040 16
WIRE -1008 144 -1040 144
WIRE -912 144 -912 0
WIRE -912 144 -944 144
WIRE 400 144 400 96
WIRE 560 144 400 144
WIRE 1312 144 1312 -384
WIRE 160 176 160 80
WIRE 160 176 112 176
WIRE 1088 176 960 176
WIRE 1232 176 1232 144
WIRE 1232 176 1168 176
WIRE -1040 192 -1040 144
WIRE -880 192 -1040 192
WIRE 400 192 400 144
WIRE -1280 224 -1280 128
WIRE -1280 224 -1328 224
WIRE -352 224 -480 224
WIRE -208 224 -208 192
WIRE -208 224 -272 224
WIRE 816 224 816 160
WIRE -1040 240 -1040 192
WIRE -624 272 -624 208
WIRE 1232 288 1232 176
WIRE 1248 288 1232 288
WIRE 560 304 560 144
WIRE 624 304 560 304
WIRE 816 304 816 224
WIRE 832 304 816 304
WIRE 1312 304 1312 144
WIRE 896 320 896 160
WIRE 960 320 960 176
WIRE 960 320 896 320
WIRE 1136 320 1136 272
WIRE 1184 320 1136 320
WIRE 1248 320 1184 320
WIRE -208 336 -208 224
WIRE -192 336 -208 336
WIRE 704 336 704 304
WIRE 768 336 704 336
WIRE 832 336 768 336
WIRE -880 352 -880 192
WIRE -816 352 -880 352
WIRE -624 352 -624 272
WIRE -608 352 -624 352
WIRE -128 352 -128 192
WIRE -48 352 -48 48
WIRE -48 352 -128 352
WIRE 256 352 240 352
WIRE -544 368 -544 208
WIRE -480 368 -480 224
WIRE -480 368 -544 368
WIRE -304 368 -304 320
WIRE -256 368 -304 368
WIRE -192 368 -256 368
WIRE 464 368 304 368
WIRE -736 384 -736 352
WIRE -672 384 -736 384
WIRE -608 384 -672 384
WIRE -1184 400 -1200 400
WIRE 464 400 400 400
WIRE 624 400 560 400
WIRE 704 400 704 336
WIRE 1136 400 1136 320
WIRE -976 416 -1136 416
WIRE -976 448 -1040 448
WIRE -816 448 -880 448
WIRE -736 448 -736 384
WIRE -304 448 -304 368
WIRE 160 480 160 352
WIRE 160 480 112 480
WIRE 192 480 160 480
WIRE 256 496 256 352
WIRE 304 496 304 368
WIRE 304 496 256 496
WIRE 192 512 160 512
WIRE -1280 528 -1280 400
WIRE -1280 528 -1328 528
WIRE -1248 528 -1280 528
WIRE 400 528 400 400
WIRE 432 528 400 528
WIRE 528 528 528 384
WIRE 528 528 496 528
WIRE -1184 544 -1184 400
WIRE -1136 544 -1136 416
WIRE -1136 544 -1184 544
WIRE -1248 560 -1280 560
WIRE -1040 576 -1040 448
WIRE -1008 576 -1040 576
WIRE -912 576 -912 432
WIRE -912 576 -944 576
WIRE -48 608 -48 352
WIRE 32 608 -48 608
WIRE 160 608 160 512
WIRE 160 608 112 608
WIRE 400 624 400 528
WIRE 560 624 560 400
WIRE 560 624 400 624
WIRE -1280 656 -1280 560
WIRE -1280 656 -1328 656
WIRE -1040 672 -1040 576
WIRE -880 672 -880 448
WIRE -880 672 -1040 672
WIRE 400 672 400 624
WIRE -1040 720 -1040 672
WIRE -48 800 -48 608
WIRE 1056 800 1056 400
WIRE 1056 800 -48 800
WIRE 4048 800 4032 800
WIRE 4256 816 4096 816
WIRE 4256 848 4192 848
WIRE 5504 848 5488 848
WIRE 5712 864 5552 864
WIRE 5712 896 5648 896
WIRE 1200 928 1168 928
WIRE 1296 928 1280 928
WIRE 3952 928 3952 800
WIRE 3952 928 3904 928
WIRE 3984 928 3952 928
WIRE 1168 944 1168 928
WIRE 4048 944 4048 800
WIRE 4096 944 4096 816
WIRE 4096 944 4048 944
WIRE 3984 960 3952 960
WIRE 4192 976 4192 848
WIRE 4224 976 4192 976
WIRE 4320 976 4320 832
WIRE 4320 976 4288 976
WIRE 5280 976 5136 976
WIRE 5408 976 5408 848
WIRE 5408 976 5360 976
WIRE 5440 976 5408 976
WIRE 5504 992 5504 848
WIRE 5552 992 5552 864
WIRE 5552 992 5504 992
WIRE 1296 1008 1296 928
WIRE 1472 1008 1472 -320
WIRE 1472 1008 1296 1008
WIRE 5440 1008 5408 1008
WIRE 4192 1024 4192 976
WIRE 4352 1024 4192 1024
WIRE 5648 1024 5648 896
WIRE 5680 1024 5648 1024
WIRE 5776 1024 5776 880
WIRE 5776 1024 5744 1024
WIRE 3952 1056 3952 960
WIRE 3952 1056 3904 1056
WIRE 4192 1072 4192 1024
WIRE 5648 1072 5648 1024
WIRE 5808 1072 5648 1072
WIRE 1168 1104 1168 944
WIRE 1232 1104 1168 1104
WIRE 4608 1104 4608 1040
WIRE 5408 1104 5408 1008
WIRE 5408 1104 5360 1104
WIRE 1296 1120 1296 1008
WIRE 5648 1120 5648 1072
WIRE 976 1136 976 1088
WIRE 1232 1136 976 1136
WIRE 4928 1136 4928 1088
WIRE 6064 1152 6064 1088
WIRE 4352 1184 4352 1024
WIRE 4416 1184 4352 1184
WIRE 4608 1184 4608 1104
WIRE 4624 1184 4608 1184
WIRE 6384 1184 6384 1136
WIRE 4688 1200 4688 1040
WIRE 4720 1200 4688 1200
WIRE 4496 1216 4496 1184
WIRE 4560 1216 4496 1216
WIRE 4624 1216 4560 1216
WIRE 976 1232 976 1136
WIRE 4048 1232 4032 1232
WIRE 4928 1232 4928 1136
WIRE 4944 1232 4928 1232
WIRE 5808 1232 5808 1072
WIRE 5872 1232 5808 1232
WIRE 6064 1232 6064 1152
WIRE 6080 1232 6064 1232
WIRE 4256 1248 4096 1248
WIRE 5008 1248 5008 1088
WIRE 5136 1248 5136 976
WIRE 5136 1248 5008 1248
WIRE 6144 1248 6144 1088
WIRE 6176 1248 6144 1248
WIRE 4800 1264 4800 1200
WIRE 4944 1264 4800 1264
WIRE 5952 1264 5952 1232
WIRE 6016 1264 5952 1264
WIRE 6080 1264 6016 1264
WIRE 4256 1280 4192 1280
WIRE 4416 1280 4352 1280
WIRE 4496 1280 4496 1216
WIRE 5504 1280 5488 1280
WIRE 6384 1280 6384 1184
WIRE 6400 1280 6384 1280
WIRE 5712 1296 5552 1296
WIRE 6464 1296 6464 1136
WIRE 6672 1296 6464 1296
WIRE 6256 1312 6256 1248
WIRE 6400 1312 6256 1312
WIRE 5712 1328 5648 1328
WIRE 5872 1328 5808 1328
WIRE 5952 1328 5952 1264
WIRE 976 1360 976 1232
WIRE 3952 1360 3952 1232
WIRE 3952 1360 3904 1360
WIRE 3984 1360 3952 1360
WIRE 4800 1360 4800 1264
WIRE 4048 1376 4048 1232
WIRE 4096 1376 4096 1248
WIRE 4096 1376 4048 1376
WIRE 3984 1392 3952 1392
WIRE 4192 1408 4192 1280
WIRE 4224 1408 4192 1408
WIRE 4320 1408 4320 1264
WIRE 4320 1408 4288 1408
WIRE 5408 1408 5408 1280
WIRE 5408 1408 5360 1408
WIRE 5440 1408 5408 1408
WIRE 6256 1408 6256 1312
WIRE 5504 1424 5504 1280
WIRE 5552 1424 5552 1296
WIRE 5552 1424 5504 1424
WIRE 6672 1424 6672 1296
WIRE 7344 1424 7328 1424
WIRE 7440 1424 7424 1424
WIRE 5440 1440 5408 1440
WIRE 5648 1456 5648 1328
WIRE 5680 1456 5648 1456
WIRE 5776 1456 5776 1312
WIRE 5776 1456 5744 1456
WIRE 7328 1456 7328 1424
WIRE 6752 1472 6752 1424
WIRE 6832 1472 6832 1408
WIRE 6832 1472 6752 1472
WIRE 3952 1488 3952 1392
WIRE 3952 1488 3904 1488
WIRE 4800 1488 4800 1360
WIRE 4192 1504 4192 1408
WIRE 4352 1504 4352 1280
WIRE 4352 1504 4192 1504
WIRE 6672 1520 6544 1520
WIRE 6752 1520 6752 1472
WIRE 5136 1536 5136 1248
WIRE 5280 1536 5136 1536
WIRE 5408 1536 5408 1440
WIRE 5408 1536 5360 1536
WIRE 6176 1536 6160 1536
WIRE 6256 1536 6256 1408
WIRE 7328 1536 7328 1456
WIRE 7360 1536 7328 1536
WIRE 4192 1552 4192 1504
WIRE 5648 1552 5648 1456
WIRE 5808 1552 5808 1328
WIRE 5808 1552 5648 1552
WIRE 6832 1552 6832 1472
WIRE 6848 1552 6832 1552
WIRE 7440 1552 7440 1424
WIRE 7440 1552 7424 1552
WIRE 6912 1568 6912 1408
WIRE 7008 1568 6912 1568
WIRE 7152 1568 7088 1568
WIRE 7200 1568 7152 1568
WIRE 7296 1568 7280 1568
WIRE 7360 1568 7296 1568
WIRE 6752 1584 6704 1584
WIRE 6848 1584 6832 1584
WIRE 7152 1584 7152 1568
WIRE 5648 1600 5648 1552
WIRE -1120 1664 -1136 1664
WIRE 6832 1664 6832 1584
WIRE -912 1680 -1072 1680
WIRE -912 1712 -976 1712
WIRE 336 1712 320 1712
WIRE 5136 1712 5136 1536
WIRE 6160 1712 6160 1536
WIRE 6160 1712 5136 1712
WIRE 7152 1712 7152 1648
WIRE 7440 1712 7440 1552
WIRE 7440 1712 7152 1712
WIRE 544 1728 384 1728
WIRE 544 1760 480 1760
WIRE -1216 1792 -1216 1664
WIRE -1216 1792 -1264 1792
WIRE -1184 1792 -1216 1792
WIRE 6832 1792 6832 1744
WIRE -1120 1808 -1120 1664
WIRE -1072 1808 -1072 1680
WIRE -1072 1808 -1120 1808
WIRE -1184 1824 -1216 1824
WIRE 5488 1824 5472 1824
WIRE -976 1840 -976 1712
WIRE -944 1840 -976 1840
WIRE -848 1840 -848 1696
WIRE -848 1840 -880 1840
WIRE 112 1840 -32 1840
WIRE 240 1840 240 1712
WIRE 240 1840 192 1840
WIRE 272 1840 240 1840
WIRE 5696 1840 5536 1840
WIRE 336 1856 336 1712
WIRE 384 1856 384 1728
WIRE 384 1856 336 1856
WIRE 272 1872 240 1872
WIRE 4048 1872 4032 1872
WIRE 5696 1872 5632 1872
WIRE -976 1888 -976 1840
WIRE -816 1888 -976 1888
WIRE 480 1888 480 1760
WIRE 512 1888 480 1888
WIRE 608 1888 608 1744
WIRE 608 1888 576 1888
WIRE 4256 1888 4096 1888
WIRE -1216 1920 -1216 1824
WIRE -1216 1920 -1264 1920
WIRE 4256 1920 4192 1920
WIRE -976 1936 -976 1888
WIRE 480 1936 480 1888
WIRE 640 1936 480 1936
WIRE 5264 1952 5184 1952
WIRE 5392 1952 5392 1824
WIRE 5392 1952 5344 1952
WIRE 5424 1952 5392 1952
WIRE -560 1968 -560 1904
WIRE 240 1968 240 1872
WIRE 240 1968 192 1968
WIRE 5488 1968 5488 1824
WIRE 5536 1968 5536 1840
WIRE 5536 1968 5488 1968
WIRE 480 1984 480 1936
WIRE 5424 1984 5392 1984
WIRE -240 2000 -240 1952
WIRE 3952 2000 3952 1872
WIRE 3952 2000 3904 2000
WIRE 3984 2000 3952 2000
WIRE 5632 2000 5632 1872
WIRE 5664 2000 5632 2000
WIRE 5760 2000 5760 1856
WIRE 5760 2000 5728 2000
WIRE 896 2016 896 1952
WIRE 4048 2016 4048 1872
WIRE 4096 2016 4096 1888
WIRE 4096 2016 4048 2016
WIRE 3984 2032 3952 2032
WIRE -816 2048 -816 1888
WIRE -752 2048 -816 2048
WIRE -560 2048 -560 1968
WIRE -544 2048 -560 2048
WIRE 1216 2048 1216 2000
WIRE 4192 2048 4192 1920
WIRE 4224 2048 4192 2048
WIRE 4320 2048 4320 1904
WIRE 4320 2048 4288 2048
WIRE 5632 2048 5632 2000
WIRE 5792 2048 5632 2048
WIRE 6544 2048 6544 1520
WIRE -480 2064 -480 1904
WIRE -448 2064 -480 2064
WIRE -672 2080 -672 2048
WIRE -608 2080 -672 2080
WIRE -544 2080 -608 2080
WIRE 5392 2080 5392 1984
WIRE 5392 2080 5344 2080
WIRE 6320 2080 6192 2080
WIRE 6464 2080 6464 2048
WIRE 6464 2080 6400 2080
WIRE -1120 2096 -1136 2096
WIRE -240 2096 -240 2000
WIRE -224 2096 -240 2096
WIRE 640 2096 640 1936
WIRE 704 2096 640 2096
WIRE 896 2096 896 2016
WIRE 912 2096 896 2096
WIRE 4192 2096 4192 2048
WIRE 4352 2096 4192 2096
WIRE 5632 2096 5632 2048
WIRE -912 2112 -1072 2112
WIRE -160 2112 -160 1952
WIRE -32 2112 -32 1840
WIRE -32 2112 -160 2112
WIRE 976 2112 976 1952
WIRE 1008 2112 976 2112
WIRE -368 2128 -368 2064
WIRE -224 2128 -368 2128
WIRE 784 2128 784 2096
WIRE 848 2128 784 2128
WIRE 912 2128 848 2128
WIRE 3952 2128 3952 2032
WIRE 3952 2128 3904 2128
WIRE 4880 2128 4752 2128
WIRE 5024 2128 5024 2096
WIRE 5024 2128 4960 2128
WIRE 6048 2128 6048 2064
WIRE -912 2144 -976 2144
WIRE -752 2144 -816 2144
WIRE -672 2144 -672 2080
WIRE 336 2144 320 2144
WIRE 1216 2144 1216 2048
WIRE 1232 2144 1216 2144
WIRE 4192 2144 4192 2096
WIRE 544 2160 384 2160
WIRE 1296 2160 1296 2000
WIRE 1504 2160 1296 2160
WIRE 1088 2176 1088 2112
WIRE 1232 2176 1088 2176
WIRE 4608 2176 4608 2112
WIRE 544 2192 480 2192
WIRE 704 2192 640 2192
WIRE 784 2192 784 2128
WIRE 6464 2192 6464 2080
WIRE 6480 2192 6464 2192
WIRE 5792 2208 5792 2048
WIRE 5856 2208 5792 2208
WIRE 6048 2208 6048 2128
WIRE 6064 2208 6048 2208
WIRE 6544 2208 6544 2048
WIRE -1216 2224 -1216 2096
WIRE -1216 2224 -1264 2224
WIRE -1184 2224 -1216 2224
WIRE -368 2224 -368 2128
WIRE 6128 2224 6128 2064
WIRE 6192 2224 6192 2080
WIRE 6192 2224 6128 2224
WIRE 6368 2224 6368 2176
WIRE 6416 2224 6368 2224
WIRE 6480 2224 6416 2224
WIRE -1120 2240 -1120 2096
WIRE -1072 2240 -1072 2112
WIRE -1072 2240 -1120 2240
WIRE 5024 2240 5024 2128
WIRE 5040 2240 5024 2240
WIRE 5936 2240 5936 2208
WIRE 6000 2240 5936 2240
WIRE 6064 2240 6000 2240
WIRE -1184 2256 -1216 2256
WIRE 4352 2256 4352 2096
WIRE 4416 2256 4352 2256
WIRE 4608 2256 4608 2176
WIRE 4624 2256 4608 2256
WIRE 5104 2256 5104 2096
WIRE 5184 2256 5184 1952
WIRE 5184 2256 5104 2256
WIRE 5488 2256 5472 2256
WIRE -976 2272 -976 2144
WIRE -944 2272 -976 2272
WIRE -848 2272 -848 2128
WIRE -848 2272 -880 2272
WIRE 240 2272 240 2144
WIRE 240 2272 192 2272
WIRE 272 2272 240 2272
WIRE 1088 2272 1088 2176
WIRE 4688 2272 4688 2112
WIRE 4752 2272 4752 2128
WIRE 4752 2272 4688 2272
WIRE 4928 2272 4928 2224
WIRE 4976 2272 4928 2272
WIRE 5040 2272 4976 2272
WIRE 5696 2272 5536 2272
WIRE 336 2288 336 2144
WIRE 384 2288 384 2160
WIRE 384 2288 336 2288
WIRE 1504 2288 1504 2160
WIRE 4496 2288 4496 2256
WIRE 4560 2288 4496 2288
WIRE 4624 2288 4560 2288
WIRE 272 2304 240 2304
WIRE 4048 2304 4032 2304
WIRE 5696 2304 5632 2304
WIRE 5856 2304 5792 2304
WIRE 5936 2304 5936 2240
WIRE 6368 2304 6368 2224
WIRE 480 2320 480 2192
WIRE 512 2320 480 2320
WIRE 608 2320 608 2176
WIRE 608 2320 576 2320
WIRE 4256 2320 4096 2320
WIRE 1584 2336 1584 2288
WIRE 1664 2336 1664 2272
WIRE 1664 2336 1584 2336
WIRE -1216 2352 -1216 2256
WIRE -1216 2352 -1264 2352
WIRE -368 2352 -368 2224
WIRE 4256 2352 4192 2352
WIRE 4416 2352 4352 2352
WIRE 4496 2352 4496 2288
WIRE 4928 2352 4928 2272
WIRE -976 2368 -976 2272
WIRE -816 2368 -816 2144
WIRE -816 2368 -976 2368
WIRE 1504 2384 1376 2384
WIRE 1584 2384 1584 2336
WIRE 5392 2384 5392 2256
WIRE 5392 2384 5344 2384
WIRE 5424 2384 5392 2384
WIRE -32 2400 -32 2112
WIRE 112 2400 -32 2400
WIRE 240 2400 240 2304
WIRE 240 2400 192 2400
WIRE 1008 2400 992 2400
WIRE 1088 2400 1088 2272
WIRE 5488 2400 5488 2256
WIRE 5536 2400 5536 2272
WIRE 5536 2400 5488 2400
WIRE -976 2416 -976 2368
WIRE 480 2416 480 2320
WIRE 640 2416 640 2192
WIRE 640 2416 480 2416
WIRE 1664 2416 1664 2336
WIRE 1680 2416 1664 2416
WIRE 5424 2416 5392 2416
WIRE 1744 2432 1744 2272
WIRE 1808 2432 1744 2432
WIRE 3952 2432 3952 2304
WIRE 3952 2432 3904 2432
WIRE 3984 2432 3952 2432
WIRE 5632 2432 5632 2304
WIRE 5664 2432 5632 2432
WIRE 5760 2432 5760 2288
WIRE 5760 2432 5728 2432
WIRE 1584 2448 1536 2448
WIRE 1680 2448 1664 2448
WIRE 4048 2448 4048 2304
WIRE 4096 2448 4096 2320
WIRE 4096 2448 4048 2448
WIRE 480 2464 480 2416
WIRE 3984 2464 3952 2464
WIRE 4192 2480 4192 2352
WIRE 4224 2480 4192 2480
WIRE 4320 2480 4320 2336
WIRE 4320 2480 4288 2480
WIRE 5184 2512 5184 2256
WIRE 5264 2512 5184 2512
WIRE 5392 2512 5392 2416
WIRE 5392 2512 5344 2512
WIRE 1664 2528 1664 2448
WIRE 5632 2528 5632 2432
WIRE 5792 2528 5792 2304
WIRE 5792 2528 5632 2528
WIRE 3952 2560 3952 2464
WIRE 3952 2560 3904 2560
WIRE -32 2576 -32 2400
WIRE 992 2576 992 2400
WIRE 992 2576 -32 2576
WIRE 4192 2576 4192 2480
WIRE 4352 2576 4352 2352
WIRE 4352 2576 4192 2576
WIRE 5632 2576 5632 2528
WIRE 4192 2624 4192 2576
WIRE 1664 2656 1664 2608
WIRE 320 2688 304 2688
WIRE 528 2704 368 2704
WIRE 5184 2704 5184 2512
WIRE 6288 2704 6288 2304
WIRE 6288 2704 5184 2704
WIRE -1120 2736 -1136 2736
WIRE 528 2736 464 2736
WIRE -912 2752 -1072 2752
WIRE -912 2784 -976 2784
WIRE 96 2816 16 2816
WIRE 224 2816 224 2688
WIRE 224 2816 176 2816
WIRE 256 2816 224 2816
WIRE 320 2832 320 2688
WIRE 368 2832 368 2704
WIRE 368 2832 320 2832
WIRE 6432 2832 6400 2832
WIRE 6528 2832 6512 2832
WIRE 256 2848 224 2848
WIRE 6400 2848 6400 2832
WIRE -1216 2864 -1216 2736
WIRE -1216 2864 -1264 2864
WIRE -1184 2864 -1216 2864
WIRE 464 2864 464 2736
WIRE 496 2864 464 2864
WIRE 592 2864 592 2720
WIRE 592 2864 560 2864
WIRE -1120 2880 -1120 2736
WIRE -1072 2880 -1072 2752
WIRE -1072 2880 -1120 2880
WIRE -1184 2896 -1216 2896
WIRE -976 2912 -976 2784
WIRE -944 2912 -976 2912
WIRE -848 2912 -848 2768
WIRE -848 2912 -880 2912
WIRE 464 2912 464 2864
WIRE 624 2912 464 2912
WIRE 1376 2912 1376 2384
WIRE 6528 2912 6528 2832
WIRE 6704 2912 6704 1584
WIRE 6704 2912 6528 2912
WIRE 224 2944 224 2848
WIRE 224 2944 176 2944
WIRE 1152 2944 1024 2944
WIRE 1296 2944 1296 2912
WIRE 1296 2944 1232 2944
WIRE -976 2960 -976 2912
WIRE -816 2960 -976 2960
WIRE 464 2960 464 2912
WIRE -1216 2992 -1216 2896
WIRE -1216 2992 -1264 2992
WIRE -288 2992 -416 2992
WIRE -144 2992 -144 2960
WIRE -144 2992 -208 2992
WIRE 880 2992 880 2928
WIRE -976 3008 -976 2960
WIRE 6400 3008 6400 2848
WIRE 6464 3008 6400 3008
WIRE 6528 3024 6528 2912
WIRE -560 3040 -560 2976
WIRE 6208 3040 6208 2992
WIRE 6464 3040 6208 3040
WIRE 1296 3056 1296 2944
WIRE 1312 3056 1296 3056
WIRE 624 3072 624 2912
WIRE 688 3072 624 3072
WIRE 880 3072 880 2992
WIRE 896 3072 880 3072
WIRE 1376 3072 1376 2912
WIRE 960 3088 960 2928
WIRE 1024 3088 1024 2944
WIRE 1024 3088 960 3088
WIRE 1200 3088 1200 3040
WIRE 1248 3088 1200 3088
WIRE 1312 3088 1248 3088
WIRE -144 3104 -144 2992
WIRE -128 3104 -144 3104
WIRE 768 3104 768 3072
WIRE 832 3104 768 3104
WIRE 896 3104 832 3104
WIRE -816 3120 -816 2960
WIRE -752 3120 -816 3120
WIRE -560 3120 -560 3040
WIRE -544 3120 -560 3120
WIRE -64 3120 -64 2960
WIRE 16 3120 16 2816
WIRE 16 3120 -64 3120
WIRE 320 3120 304 3120
WIRE -480 3136 -480 2976
WIRE -416 3136 -416 2992
WIRE -416 3136 -480 3136
WIRE -240 3136 -240 3088
WIRE -192 3136 -240 3136
WIRE -128 3136 -192 3136
WIRE 528 3136 368 3136
WIRE 6208 3136 6208 3040
WIRE -672 3152 -672 3120
WIRE -608 3152 -672 3152
WIRE -544 3152 -608 3152
WIRE -1120 3168 -1136 3168
WIRE 528 3168 464 3168
WIRE 688 3168 624 3168
WIRE 768 3168 768 3104
WIRE 1200 3168 1200 3088
WIRE -912 3184 -1072 3184
WIRE -912 3216 -976 3216
WIRE -752 3216 -816 3216
WIRE -672 3216 -672 3152
WIRE -240 3216 -240 3136
WIRE 224 3248 224 3120
WIRE 224 3248 176 3248
WIRE 256 3248 224 3248
WIRE 320 3264 320 3120
WIRE 368 3264 368 3136
WIRE 368 3264 320 3264
WIRE 6208 3264 6208 3136
WIRE 256 3280 224 3280
WIRE -1216 3296 -1216 3168
WIRE -1216 3296 -1264 3296
WIRE -1184 3296 -1216 3296
WIRE 464 3296 464 3168
WIRE 496 3296 464 3296
WIRE 592 3296 592 3152
WIRE 592 3296 560 3296
WIRE -1120 3312 -1120 3168
WIRE -1072 3312 -1072 3184
WIRE -1072 3312 -1120 3312
WIRE -1184 3328 -1216 3328
WIRE -976 3344 -976 3216
WIRE -944 3344 -976 3344
WIRE -848 3344 -848 3200
WIRE -848 3344 -880 3344
WIRE 16 3376 16 3120
WIRE 96 3376 16 3376
WIRE 224 3376 224 3280
WIRE 224 3376 176 3376
WIRE 464 3392 464 3296
WIRE 624 3392 624 3168
WIRE 624 3392 464 3392
WIRE -1216 3424 -1216 3328
WIRE -1216 3424 -1264 3424
WIRE -976 3440 -976 3344
WIRE -816 3440 -816 3216
WIRE -816 3440 -976 3440
WIRE 464 3440 464 3392
WIRE -976 3488 -976 3440
WIRE 16 3568 16 3376
WIRE 1120 3568 1120 3168
WIRE 1120 3568 16 3568
WIRE 3040 3680 3024 3680
WIRE 1264 3696 1232 3696
WIRE 1360 3696 1344 3696
WIRE 1232 3712 1232 3696
WIRE 2944 3760 2944 3680
WIRE 2944 3760 2848 3760
WIRE 3040 3760 3040 3680
WIRE 1360 3776 1360 3696
WIRE 1536 3776 1536 2448
WIRE 1536 3776 1360 3776
WIRE 2944 3792 2944 3760
WIRE 2976 3792 2944 3792
WIRE 3040 3808 3040 3760
WIRE 2768 3824 2768 3760
WIRE 2848 3824 2768 3824
WIRE 2976 3824 2928 3824
WIRE 7520 3824 7504 3824
WIRE 8032 3824 8016 3824
WIRE 8544 3824 8528 3824
WIRE 9008 3824 8992 3824
WIRE 1232 3872 1232 3712
WIRE 1296 3872 1232 3872
WIRE 1360 3888 1360 3776
WIRE 1040 3904 1040 3856
WIRE 1296 3904 1040 3904
WIRE 7424 3904 7424 3824
WIRE 7424 3904 7328 3904
WIRE 7520 3904 7520 3824
WIRE 7936 3904 7936 3824
WIRE 7936 3904 7840 3904
WIRE 8032 3904 8032 3824
WIRE 8448 3904 8448 3824
WIRE 8448 3904 8352 3904
WIRE 8544 3904 8544 3824
WIRE 8912 3904 8912 3824
WIRE 8912 3904 8816 3904
WIRE 9008 3904 9008 3824
WIRE 2768 3936 2768 3824
WIRE 7424 3936 7424 3904
WIRE 7456 3936 7424 3936
WIRE 7936 3936 7936 3904
WIRE 7968 3936 7936 3936
WIRE 8448 3936 8448 3904
WIRE 8480 3936 8448 3936
WIRE 8912 3936 8912 3904
WIRE 8944 3936 8912 3936
WIRE 7520 3952 7520 3904
WIRE 8032 3952 8032 3904
WIRE 8544 3952 8544 3904
WIRE 9008 3952 9008 3904
WIRE 4144 3968 4128 3968
WIRE 7248 3968 7248 3904
WIRE 7328 3968 7248 3968
WIRE 7456 3968 7408 3968
WIRE 7760 3968 7760 3904
WIRE 7840 3968 7760 3968
WIRE 7968 3968 7920 3968
WIRE 8272 3968 8272 3904
WIRE 8352 3968 8272 3968
WIRE 8480 3968 8432 3968
WIRE 8736 3968 8736 3904
WIRE 8816 3968 8736 3968
WIRE 8944 3968 8896 3968
WIRE 4352 3984 4192 3984
WIRE 1040 4000 1040 3904
WIRE 4352 4016 4288 4016
WIRE 5600 4016 5584 4016
WIRE 5808 4032 5648 4032
WIRE 5808 4064 5744 4064
WIRE 7248 4080 7248 3968
WIRE 7760 4080 7760 3968
WIRE 8272 4080 8272 3968
WIRE 8736 4080 8736 3968
WIRE 4048 4096 4048 3968
WIRE 4048 4096 4000 4096
WIRE 4080 4096 4048 4096
WIRE 3040 4112 3024 4112
WIRE 4144 4112 4144 3968
WIRE 4192 4112 4192 3984
WIRE 4192 4112 4144 4112
WIRE 1040 4128 1040 4000
WIRE 4080 4128 4048 4128
WIRE 4288 4144 4288 4016
WIRE 4320 4144 4288 4144
WIRE 4416 4144 4416 4000
WIRE 4416 4144 4384 4144
WIRE 5376 4144 5232 4144
WIRE 5504 4144 5504 4016
WIRE 5504 4144 5456 4144
WIRE 5536 4144 5504 4144
WIRE 5600 4160 5600 4016
WIRE 5648 4160 5648 4032
WIRE 5648 4160 5600 4160
WIRE 5536 4176 5504 4176
WIRE 2944 4192 2944 4112
WIRE 2944 4192 2848 4192
WIRE 3040 4192 3040 4112
WIRE 4288 4192 4288 4144
WIRE 4448 4192 4288 4192
WIRE 5744 4192 5744 4064
WIRE 5776 4192 5744 4192
WIRE 5872 4192 5872 4048
WIRE 5872 4192 5840 4192
WIRE 2944 4224 2944 4192
WIRE 2976 4224 2944 4224
WIRE 4048 4224 4048 4128
WIRE 4048 4224 4000 4224
WIRE 3040 4240 3040 4192
WIRE 4288 4240 4288 4192
WIRE 5744 4240 5744 4192
WIRE 5904 4240 5744 4240
WIRE 2768 4256 2768 4192
WIRE 2848 4256 2768 4256
WIRE 2976 4256 2928 4256
WIRE 10704 4256 10656 4256
WIRE 10848 4256 10768 4256
WIRE 10880 4256 10848 4256
WIRE 11024 4256 10960 4256
WIRE 4704 4272 4704 4208
WIRE 5504 4272 5504 4176
WIRE 5504 4272 5456 4272
WIRE 5744 4288 5744 4240
WIRE 10128 4288 10080 4288
WIRE 10272 4288 10192 4288
WIRE 10304 4288 10272 4288
WIRE 10432 4288 10384 4288
WIRE 5024 4304 5024 4256
WIRE 6160 4320 6160 4256
WIRE 9632 4320 9584 4320
WIRE 9776 4320 9696 4320
WIRE 9824 4320 9776 4320
WIRE 9952 4320 9904 4320
WIRE 10848 4336 10848 4256
WIRE 4448 4352 4448 4192
WIRE 4512 4352 4448 4352
WIRE 4704 4352 4704 4272
WIRE 4720 4352 4704 4352
WIRE 6480 4352 6480 4304
WIRE 9072 4352 9024 4352
WIRE 9216 4352 9136 4352
WIRE 9264 4352 9216 4352
WIRE 9392 4352 9344 4352
WIRE 2768 4368 2768 4256
WIRE 4784 4368 4784 4208
WIRE 4816 4368 4784 4368
WIRE 10272 4368 10272 4288
WIRE 4592 4384 4592 4352
WIRE 4656 4384 4592 4384
WIRE 4720 4384 4656 4384
WIRE 4144 4400 4128 4400
WIRE 5024 4400 5024 4304
WIRE 5040 4400 5024 4400
WIRE 5904 4400 5904 4240
WIRE 5968 4400 5904 4400
WIRE 6160 4400 6160 4320
WIRE 6176 4400 6160 4400
WIRE 9776 4400 9776 4320
WIRE 4352 4416 4192 4416
WIRE 5104 4416 5104 4256
WIRE 5232 4416 5232 4144
WIRE 5232 4416 5104 4416
WIRE 6240 4416 6240 4256
WIRE 6272 4416 6240 4416
WIRE 10848 4416 10848 4336
WIRE 10896 4416 10848 4416
WIRE 4896 4432 4896 4368
WIRE 5040 4432 4896 4432
WIRE 6048 4432 6048 4400
WIRE 6112 4432 6048 4432
WIRE 6176 4432 6112 4432
WIRE 8592 4432 8576 4432
WIRE 8688 4432 8672 4432
WIRE 9216 4432 9216 4352
WIRE 11024 4432 11024 4256
WIRE 11024 4432 10960 4432
WIRE 4352 4448 4288 4448
WIRE 4512 4448 4448 4448
WIRE 4592 4448 4592 4384
WIRE 5600 4448 5584 4448
WIRE 6480 4448 6480 4352
WIRE 6496 4448 6480 4448
WIRE 10272 4448 10272 4368
WIRE 10320 4448 10272 4448
WIRE 10896 4448 10848 4448
WIRE 5808 4464 5648 4464
WIRE 6560 4464 6560 4304
WIRE 6768 4464 6560 4464
WIRE 8032 4464 8032 4416
WIRE 8576 4464 8576 4432
WIRE 10432 4464 10432 4288
WIRE 10432 4464 10384 4464
WIRE 10496 4464 10432 4464
WIRE 10656 4464 10656 4256
WIRE 10656 4464 10576 4464
WIRE 10720 4464 10656 4464
WIRE 10848 4464 10848 4448
WIRE 10848 4464 10800 4464
WIRE 6352 4480 6352 4416
WIRE 6496 4480 6352 4480
WIRE 9776 4480 9776 4400
WIRE 9824 4480 9776 4480
WIRE 10320 4480 10272 4480
WIRE 5808 4496 5744 4496
WIRE 5968 4496 5904 4496
WIRE 6048 4496 6048 4432
WIRE 9952 4496 9952 4320
WIRE 9952 4496 9888 4496
WIRE 9984 4496 9952 4496
WIRE 10080 4496 10080 4288
WIRE 10080 4496 10064 4496
WIRE 10144 4496 10080 4496
WIRE 10272 4496 10272 4480
WIRE 10272 4496 10224 4496
WIRE 9216 4512 9216 4432
WIRE 9264 4512 9216 4512
WIRE 9824 4512 9776 4512
WIRE 4048 4528 4048 4400